Version 4
SHEET 1 880 680
WIRE 240 -48 -256 -48
WIRE 224 32 -16 32
WIRE 320 32 288 32
WIRE -128 80 -160 80
WIRE -48 96 -48 80
WIRE -16 96 -16 32
WIRE -16 96 -48 96
WIRE 0 96 -16 96
WIRE 96 96 80 96
WIRE 160 96 96 96
WIRE 240 144 240 -48
WIRE -256 160 -256 -48
WIRE -160 160 -160 80
WIRE 208 160 144 160
WIRE 320 176 320 32
WIRE 320 176 272 176
WIRE 496 176 320 176
WIRE 160 192 160 96
WIRE 208 192 160 192
WIRE -160 240 -256 240
WIRE 144 256 144 160
WIRE 192 256 144 256
WIRE 320 256 320 176
WIRE 320 256 272 256
WIRE 144 272 144 256
WIRE -160 288 -160 240
WIRE -256 432 -256 320
WIRE 240 432 240 208
WIRE 240 432 -256 432
FLAG 96 160 0
FLAG 144 352 0
FLAG -160 288 0
SYMBOL Opamps\\LTC1052 240 112 R0
SYMATTR InstName U1
SYMBOL voltage -160 144 R0
WINDOW 123 24 124 Left 2
WINDOW 39 0 0 Left 2
SYMATTR Value2 AC 1 0
SYMATTR InstName V1
SYMATTR Value ""
SYMBOL voltage -256 144 R0
WINDOW 123 0 0 Left 2
WINDOW 39 0 0 Left 2
SYMATTR InstName V2
SYMATTR Value 5
SYMBOL res 96 80 R90
WINDOW 0 0 56 VBottom 2
WINDOW 3 32 56 VTop 2
SYMATTR InstName R2
SYMATTR Value 1k
SYMBOL cap 288 16 R90
WINDOW 0 0 32 VBottom 2
WINDOW 3 32 32 VTop 2
SYMATTR InstName C1
SYMATTR Value 2µ
SYMBOL res 288 240 R90
WINDOW 0 0 56 VBottom 2
WINDOW 3 32 56 VTop 2
SYMATTR InstName R3
SYMATTR Value 300k
SYMBOL res 128 368 M180
WINDOW 0 36 76 Left 2
WINDOW 3 36 40 Left 2
SYMATTR InstName R4
SYMATTR Value 100k
SYMBOL res -32 64 R90
WINDOW 0 0 56 VBottom 2
WINDOW 3 32 56 VTop 2
SYMATTR InstName R1
SYMATTR Value 1k
SYMBOL cap 80 96 R0
SYMATTR InstName C2
SYMATTR Value 2µ
SYMBOL voltage -256 224 R0
WINDOW 123 0 0 Left 2
WINDOW 39 0 0 Left 2
SYMATTR InstName V3
SYMATTR Value 5
TEXT 440 384 Left 2 !.ac dec 20 0.1 1Meg
