Version 4
SHEET 1 880 680
WIRE 224 -112 -176 -112
WIRE 160 -80 -80 -80
WIRE -176 -16 -176 -112
WIRE 256 0 256 -48
WIRE 256 0 160 0
WIRE 64 48 -32 48
WIRE 224 48 224 -112
WIRE -32 64 -32 48
WIRE 160 64 160 0
WIRE 192 64 160 64
WIRE 336 64 336 -48
WIRE 448 64 336 64
WIRE 336 80 336 64
WIRE 336 80 256 80
WIRE 64 96 64 48
WIRE 192 96 64 96
WIRE -80 144 -80 -80
WIRE -32 144 -80 144
WIRE -32 160 -32 144
WIRE -176 288 -176 64
WIRE 224 288 224 112
WIRE 224 288 -176 288
FLAG -32 160 0
FLAG -176 288 0
SYMBOL voltage -176 -32 R0
WINDOW 123 0 0 Left 2
WINDOW 39 0 0 Left 2
SYMATTR InstName V1
SYMATTR Value 5
SYMBOL voltage -32 48 R0
WINDOW 123 24 124 Left 2
WINDOW 39 0 0 Left 2
SYMATTR Value2 AC 1 0
SYMATTR InstName V2
SYMATTR Value ""
SYMBOL res 144 -96 R0
SYMATTR InstName R2
SYMATTR Value 1k
SYMBOL res 352 -64 R90
WINDOW 0 0 56 VBottom 2
WINDOW 3 32 56 VTop 2
SYMATTR InstName R1
SYMATTR Value 2k
SYMBOL Opamps\\LTC1052 224 16 R0
SYMATTR InstName U1
TEXT -296 432 Left 2 !.ac dec 20 0.1 1000000k
